data_FAU.cif



_cell_length_a		24.2576
_cell_length_b		24.2576
_cell_length_c		24.2576
_cell_angle_alpha		90.0
_cell_angle_beta		90.0
_cell_angle_gamma		90.0

_symmetry_space_group_name_H-M	'P 1'
_symmetry_Int_Tables_number	1
_symmetry_cell_setting	triclinic

loop_
_symmetry_equiv_pos_as_xyz
x,y,z

loop_
_atom_site_label
_atom_site_type_symbol
_atom_site_fract_x
_atom_site_fract_y
_atom_site_fract_z
Siz_1	Si	0.94608	0.1253	0.03589
Oz_2	O	0.0	0.89377	0.10623
Oz_3	O	0.99677	0.99677	0.14066
Oz_4	O	0.0757	0.0757	0.96423
Oz_5	O	0.07063	0.07063	0.32115
Siz_6	Si	0.80392	0.1247	0.53589
Oz_7	O	0.75	0.35623	0.60623
Oz_8	O	0.75323	0.25323	0.64066
Oz_9	O	0.6743	0.1743	0.46423
Oz_10	O	0.67937	0.17937	0.82115
Siz_11	Si	0.30392	0.6253	0.71411
Oz_12	O	0.25	0.39377	0.64377
Oz_13	O	0.25323	0.49677	0.60934
Oz_14	O	0.1743	0.5757	0.78577
Oz_15	O	0.17937	0.57063	0.42885
Siz_16	Si	0.44608	0.6247	0.21411
Oz_17	O	0.5	0.85623	0.14377
Oz_18	O	0.49677	0.75323	0.10934
Oz_19	O	0.5757	0.6743	0.28577
Oz_20	O	0.57063	0.67937	0.92885
Siz_21	Si	0.03589	0.94608	0.1253
Oz_22	O	0.10623	0.0	0.89377
Oz_23	O	0.14066	0.99677	0.99677
Oz_24	O	0.96423	0.0757	0.0757
Oz_25	O	0.32115	0.07063	0.07063
Siz_26	Si	0.53589	0.80392	0.1247
Oz_27	O	0.60623	0.75	0.35623
Oz_28	O	0.64066	0.75323	0.25323
Oz_29	O	0.46423	0.6743	0.1743
Oz_30	O	0.82115	0.67937	0.17937
Siz_31	Si	0.71411	0.30392	0.6253
Oz_32	O	0.64377	0.25	0.39377
Oz_33	O	0.60934	0.25323	0.49677
Oz_34	O	0.78577	0.1743	0.5757
Oz_35	O	0.42885	0.17937	0.57063
Siz_36	Si	0.21411	0.44608	0.6247
Oz_37	O	0.14377	0.5	0.85623
Oz_38	O	0.10934	0.49677	0.75323
Oz_39	O	0.28577	0.5757	0.6743
Oz_40	O	0.92885	0.57063	0.67937
Siz_41	Si	0.1253	0.03589	0.94608
Oz_42	O	0.89377	0.10623	0.0
Oz_43	O	0.99677	0.14066	0.99677
Oz_44	O	0.0757	0.96423	0.0757
Oz_45	O	0.07063	0.32115	0.07063
Siz_46	Si	0.1247	0.53589	0.80392
Oz_47	O	0.35623	0.60623	0.75
Oz_48	O	0.25323	0.64066	0.75323
Oz_49	O	0.1743	0.46423	0.6743
Oz_50	O	0.17937	0.82115	0.67937
Siz_51	Si	0.6253	0.71411	0.30392
Oz_52	O	0.39377	0.64377	0.25
Oz_53	O	0.49677	0.60934	0.25323
Oz_54	O	0.5757	0.78577	0.1743
Oz_55	O	0.57063	0.42885	0.17937
Siz_56	Si	0.6247	0.21411	0.44608
Oz_57	O	0.85623	0.14377	0.5
Oz_58	O	0.75323	0.10934	0.49677
Oz_59	O	0.6743	0.28577	0.5757
Oz_60	O	0.67937	0.92885	0.57063
Siz_61	Si	0.8753	0.19608	0.46411
Oz_62	O	0.74677	0.24677	0.35934
Oz_63	O	0.8257	0.3257	0.53577
Oz_64	O	0.82063	0.32063	0.17885
Siz_65	Si	0.8747	0.05392	0.96411
Oz_66	O	0.00323	0.00323	0.85934
Oz_67	O	0.9243	0.9243	0.03577
Oz_68	O	0.92937	0.92937	0.67885
Siz_69	Si	0.3753	0.55392	0.78589
Oz_70	O	0.24677	0.50323	0.89066
Oz_71	O	0.3257	0.4243	0.71423
Oz_72	O	0.32063	0.42937	0.07115
Siz_73	Si	0.3747	0.69608	0.28589
Oz_74	O	0.50323	0.74677	0.39066
Oz_75	O	0.4243	0.8257	0.21423
Oz_76	O	0.42937	0.82063	0.57115
Siz_77	Si	0.69608	0.28589	0.3747
Oz_78	O	0.74677	0.39066	0.50323
Oz_79	O	0.8257	0.21423	0.4243
Oz_80	O	0.82063	0.57115	0.42937
Siz_81	Si	0.55392	0.78589	0.3753
Oz_82	O	0.50323	0.89066	0.24677
Oz_83	O	0.4243	0.71423	0.3257
Oz_84	O	0.42937	0.07115	0.32063
Siz_85	Si	0.05392	0.96411	0.8747
Oz_86	O	0.00323	0.85934	0.00323
Oz_87	O	0.9243	0.03577	0.9243
Oz_88	O	0.92937	0.67885	0.92937
Siz_89	Si	0.19608	0.46411	0.8753
Oz_90	O	0.24677	0.35934	0.74677
Oz_91	O	0.3257	0.53577	0.8257
Oz_92	O	0.32063	0.17885	0.82063
Siz_93	Si	0.78589	0.3753	0.55392
Oz_94	O	0.89066	0.24677	0.50323
Oz_95	O	0.71423	0.3257	0.4243
Oz_96	O	0.07115	0.32063	0.42937
Siz_97	Si	0.28589	0.3747	0.69608
Oz_98	O	0.39066	0.50323	0.74677
Oz_99	O	0.21423	0.4243	0.8257
Oz_100	O	0.57115	0.42937	0.82063
Siz_101	Si	0.46411	0.8753	0.19608
Oz_102	O	0.35934	0.74677	0.24677
Oz_103	O	0.53577	0.8257	0.3257
Oz_104	O	0.17885	0.82063	0.32063
Siz_105	Si	0.96411	0.8747	0.05392
Oz_106	O	0.85934	0.00323	0.00323
Oz_107	O	0.03577	0.9243	0.9243
Oz_108	O	0.67885	0.92937	0.92937
Siz_109	Si	0.05392	0.8747	0.96411
Oz_110	O	0.0	0.10623	0.89377
Siz_111	Si	0.19608	0.8753	0.46411
Oz_112	O	0.25	0.64377	0.39377
Oz_113	O	0.24677	0.74677	0.35934
Oz_114	O	0.3257	0.8257	0.53577
Oz_115	O	0.32063	0.82063	0.17885
Siz_116	Si	0.69608	0.3747	0.28589
Oz_117	O	0.75	0.60623	0.35623
Oz_118	O	0.74677	0.50323	0.39066
Oz_119	O	0.8257	0.4243	0.21423
Oz_120	O	0.82063	0.42937	0.57115
Siz_121	Si	0.55392	0.3753	0.78589
Oz_122	O	0.5	0.14377	0.85623
Oz_123	O	0.50323	0.24677	0.89066
Oz_124	O	0.4243	0.3257	0.71423
Oz_125	O	0.42937	0.32063	0.07115
Siz_126	Si	0.96411	0.05392	0.8747
Oz_127	O	0.89377	0.0	0.10623
Siz_128	Si	0.46411	0.19608	0.8753
Oz_129	O	0.39377	0.25	0.64377
Oz_130	O	0.35934	0.24677	0.74677
Oz_131	O	0.53577	0.3257	0.8257
Oz_132	O	0.17885	0.32063	0.82063
Siz_133	Si	0.28589	0.69608	0.3747
Oz_134	O	0.35623	0.75	0.60623
Oz_135	O	0.39066	0.74677	0.50323
Oz_136	O	0.21423	0.8257	0.4243
Oz_137	O	0.57115	0.82063	0.42937
Siz_138	Si	0.78589	0.55392	0.3753
Oz_139	O	0.85623	0.5	0.14377
Oz_140	O	0.89066	0.50323	0.24677
Oz_141	O	0.71423	0.4243	0.3257
Oz_142	O	0.07115	0.42937	0.32063
Siz_143	Si	0.8747	0.96411	0.05392
Oz_144	O	0.10623	0.89377	0.0
Siz_145	Si	0.8753	0.46411	0.19608
Oz_146	O	0.64377	0.39377	0.25
Oz_147	O	0.74677	0.35934	0.24677
Oz_148	O	0.8257	0.53577	0.3257
Oz_149	O	0.82063	0.17885	0.32063
Siz_150	Si	0.3747	0.28589	0.69608
Oz_151	O	0.60623	0.35623	0.75
Oz_152	O	0.50323	0.39066	0.74677
Oz_153	O	0.4243	0.21423	0.8257
Oz_154	O	0.42937	0.57115	0.82063
Siz_155	Si	0.3753	0.78589	0.55392
Oz_156	O	0.14377	0.85623	0.5
Oz_157	O	0.24677	0.89066	0.50323
Oz_158	O	0.3257	0.71423	0.4243
Oz_159	O	0.32063	0.07115	0.42937
Siz_160	Si	0.1247	0.80392	0.53589
Oz_161	O	0.25323	0.75323	0.64066
Oz_162	O	0.1743	0.6743	0.46423
Oz_163	O	0.17937	0.67937	0.82115
Siz_164	Si	0.1253	0.94608	0.03589
Siz_165	Si	0.6247	0.44608	0.21411
Oz_166	O	0.75323	0.49677	0.10934
Oz_167	O	0.6743	0.5757	0.28577
Oz_168	O	0.67937	0.57063	0.92885
Siz_169	Si	0.6253	0.30392	0.71411
Oz_170	O	0.49677	0.25323	0.60934
Oz_171	O	0.5757	0.1743	0.78577
Oz_172	O	0.57063	0.17937	0.42885
Siz_173	Si	0.30392	0.71411	0.6253
Oz_174	O	0.25323	0.60934	0.49677
Oz_175	O	0.1743	0.78577	0.5757
Oz_176	O	0.17937	0.42885	0.57063
Siz_177	Si	0.44608	0.21411	0.6247
Oz_178	O	0.49677	0.10934	0.75323
Oz_179	O	0.5757	0.28577	0.6743
Oz_180	O	0.57063	0.92885	0.67937
Siz_181	Si	0.94608	0.03589	0.1253
Siz_182	Si	0.80392	0.53589	0.1247
Oz_183	O	0.75323	0.64066	0.25323
Oz_184	O	0.6743	0.46423	0.1743
Oz_185	O	0.67937	0.82115	0.17937
Siz_186	Si	0.21411	0.6247	0.44608
Oz_187	O	0.10934	0.75323	0.49677
Oz_188	O	0.28577	0.6743	0.5757
Oz_189	O	0.92885	0.67937	0.57063
Siz_190	Si	0.71411	0.6253	0.30392
Oz_191	O	0.60934	0.49677	0.25323
Oz_192	O	0.78577	0.5757	0.1743
Oz_193	O	0.42885	0.57063	0.17937
Siz_194	Si	0.53589	0.1247	0.80392
Oz_195	O	0.64066	0.25323	0.75323
Oz_196	O	0.46423	0.1743	0.6743
Oz_197	O	0.82115	0.17937	0.67937
Siz_198	Si	0.03589	0.1253	0.94608
Siz_199	Si	0.94608	0.6253	0.53589
Oz_200	O	0.0	0.39377	0.60623
Oz_201	O	0.99677	0.49677	0.64066
Oz_202	O	0.0757	0.5757	0.46423
Oz_203	O	0.07063	0.57063	0.82115
Siz_204	Si	0.80392	0.6247	0.03589
Oz_205	O	0.75	0.85623	0.10623
Oz_206	O	0.75323	0.75323	0.14066
Oz_207	O	0.6743	0.6743	0.96423
Oz_208	O	0.67937	0.67937	0.32115
Siz_209	Si	0.30392	0.1253	0.21411
Oz_210	O	0.25	0.89377	0.14377
Oz_211	O	0.25323	0.99677	0.10934
Oz_212	O	0.1743	0.0757	0.28577
Oz_213	O	0.17937	0.07063	0.92885
Siz_214	Si	0.44608	0.1247	0.71411
Oz_215	O	0.5	0.35623	0.64377
Siz_216	Si	0.03589	0.44608	0.6253
Oz_217	O	0.10623	0.5	0.39377
Oz_218	O	0.14066	0.49677	0.49677
Oz_219	O	0.96423	0.5757	0.5757
Oz_220	O	0.32115	0.57063	0.57063
Siz_221	Si	0.53589	0.30392	0.6247
Oz_222	O	0.60623	0.25	0.85623
Siz_223	Si	0.71411	0.80392	0.1253
Oz_224	O	0.64377	0.75	0.89377
Oz_225	O	0.60934	0.75323	0.99677
Oz_226	O	0.78577	0.6743	0.0757
Oz_227	O	0.42885	0.67937	0.07063
Siz_228	Si	0.21411	0.94608	0.1247
Oz_229	O	0.14377	0.0	0.35623
Oz_230	O	0.10934	0.99677	0.25323
Oz_231	O	0.28577	0.0757	0.1743
Oz_232	O	0.92885	0.07063	0.17937
Siz_233	Si	0.1253	0.53589	0.44608
Oz_234	O	0.89377	0.60623	0.5
Oz_235	O	0.99677	0.64066	0.49677
Oz_236	O	0.0757	0.46423	0.5757
Oz_237	O	0.07063	0.82115	0.57063
Siz_238	Si	0.1247	0.03589	0.30392
Oz_239	O	0.35623	0.10623	0.25
Oz_240	O	0.25323	0.14066	0.25323
Oz_241	O	0.1743	0.96423	0.1743
Oz_242	O	0.17937	0.32115	0.17937
Siz_243	Si	0.6253	0.21411	0.80392
Oz_244	O	0.39377	0.14377	0.75
Siz_245	Si	0.6247	0.71411	0.94608
Oz_246	O	0.85623	0.64377	0.0
Oz_247	O	0.75323	0.60934	0.99677
Oz_248	O	0.6743	0.78577	0.0757
Oz_249	O	0.67937	0.42885	0.07063
Siz_250	Si	0.8753	0.69608	0.96411
Oz_251	O	0.74677	0.74677	0.85934
Oz_252	O	0.8257	0.8257	0.03577
Oz_253	O	0.82063	0.82063	0.67885
Siz_254	Si	0.8747	0.55392	0.46411
Oz_255	O	0.00323	0.50323	0.35934
Oz_256	O	0.9243	0.4243	0.53577
Oz_257	O	0.92937	0.42937	0.17885
Siz_258	Si	0.3753	0.05392	0.28589
Oz_259	O	0.24677	0.00323	0.39066
Oz_260	O	0.3257	0.9243	0.21423
Oz_261	O	0.32063	0.92937	0.57115
Siz_262	Si	0.3747	0.19608	0.78589
Siz_263	Si	0.69608	0.78589	0.8747
Oz_264	O	0.74677	0.89066	0.00323
Oz_265	O	0.8257	0.71423	0.9243
Oz_266	O	0.82063	0.07115	0.92937
Siz_267	Si	0.55392	0.28589	0.8753
Siz_268	Si	0.05392	0.46411	0.3747
Oz_269	O	0.00323	0.35934	0.50323
Oz_270	O	0.9243	0.53577	0.4243
Oz_271	O	0.92937	0.17885	0.42937
Siz_272	Si	0.19608	0.96411	0.3753
Oz_273	O	0.24677	0.85934	0.24677
Oz_274	O	0.3257	0.03577	0.3257
Oz_275	O	0.32063	0.67885	0.32063
Siz_276	Si	0.78589	0.8753	0.05392
Oz_277	O	0.89066	0.74677	0.00323
Oz_278	O	0.71423	0.8257	0.9243
Oz_279	O	0.07115	0.82063	0.92937
Siz_280	Si	0.28589	0.8747	0.19608
Oz_281	O	0.39066	0.00323	0.24677
Oz_282	O	0.21423	0.9243	0.3257
Oz_283	O	0.57115	0.92937	0.32063
Siz_284	Si	0.46411	0.3753	0.69608
Siz_285	Si	0.96411	0.3747	0.55392
Oz_286	O	0.85934	0.50323	0.50323
Oz_287	O	0.03577	0.4243	0.4243
Oz_288	O	0.67885	0.42937	0.42937
Siz_289	Si	0.05392	0.3747	0.46411
Oz_290	O	0.0	0.60623	0.39377
Siz_291	Si	0.19608	0.3753	0.96411
Oz_292	O	0.25	0.14377	0.89377
Oz_293	O	0.24677	0.24677	0.85934
Oz_294	O	0.3257	0.3257	0.03577
Oz_295	O	0.32063	0.32063	0.67885
Siz_296	Si	0.69608	0.8747	0.78589
Oz_297	O	0.75	0.10623	0.85623
Oz_298	O	0.74677	0.00323	0.89066
Oz_299	O	0.8257	0.9243	0.71423
Oz_300	O	0.82063	0.92937	0.07115
Siz_301	Si	0.55392	0.8753	0.28589
Oz_302	O	0.5	0.64377	0.35623
Siz_303	Si	0.96411	0.55392	0.3747
Oz_304	O	0.89377	0.5	0.60623
Siz_305	Si	0.46411	0.69608	0.3753
Oz_306	O	0.39377	0.75	0.14377
Siz_307	Si	0.28589	0.19608	0.8747
Oz_308	O	0.35623	0.25	0.10623
Oz_309	O	0.39066	0.24677	0.00323
Oz_310	O	0.21423	0.3257	0.9243
Oz_311	O	0.57115	0.32063	0.92937
Siz_312	Si	0.78589	0.05392	0.8753
Oz_313	O	0.85623	0.0	0.64377
Oz_314	O	0.89066	0.00323	0.74677
Oz_315	O	0.71423	0.9243	0.8257
Oz_316	O	0.07115	0.92937	0.82063
Siz_317	Si	0.8747	0.46411	0.55392
Oz_318	O	0.10623	0.39377	0.5
Siz_319	Si	0.8753	0.96411	0.69608
Oz_320	O	0.64377	0.89377	0.75
Oz_321	O	0.74677	0.85934	0.74677
Oz_322	O	0.8257	0.03577	0.8257
Oz_323	O	0.82063	0.67885	0.82063
Siz_324	Si	0.3747	0.78589	0.19608
Oz_325	O	0.60623	0.85623	0.25
Siz_326	Si	0.3753	0.28589	0.05392
Oz_327	O	0.14377	0.35623	0.0
Oz_328	O	0.24677	0.39066	0.00323
Oz_329	O	0.3257	0.21423	0.9243
Oz_330	O	0.32063	0.57115	0.92937
Siz_331	Si	0.1247	0.30392	0.03589
Oz_332	O	0.25323	0.25323	0.14066
Oz_333	O	0.1743	0.1743	0.96423
Oz_334	O	0.17937	0.17937	0.32115
Siz_335	Si	0.1253	0.44608	0.53589
Siz_336	Si	0.6247	0.94608	0.71411
Oz_337	O	0.75323	0.99677	0.60934
Oz_338	O	0.6743	0.0757	0.78577
Oz_339	O	0.67937	0.07063	0.42885
Siz_340	Si	0.6253	0.80392	0.21411
Siz_341	Si	0.30392	0.21411	0.1253
Oz_342	O	0.25323	0.10934	0.99677
Oz_343	O	0.1743	0.28577	0.0757
Oz_344	O	0.17937	0.92885	0.07063
Siz_345	Si	0.44608	0.71411	0.1247
Siz_346	Si	0.94608	0.53589	0.6253
Siz_347	Si	0.80392	0.03589	0.6247
Oz_348	O	0.75323	0.14066	0.75323
Oz_349	O	0.6743	0.96423	0.6743
Oz_350	O	0.67937	0.32115	0.67937
Siz_351	Si	0.21411	0.1247	0.94608
Oz_352	O	0.10934	0.25323	0.99677
Oz_353	O	0.28577	0.1743	0.0757
Oz_354	O	0.92885	0.17937	0.07063
Siz_355	Si	0.71411	0.1253	0.80392
Oz_356	O	0.60934	0.99677	0.75323
Oz_357	O	0.78577	0.0757	0.6743
Oz_358	O	0.42885	0.07063	0.67937
Siz_359	Si	0.53589	0.6247	0.30392
Siz_360	Si	0.03589	0.6253	0.44608
Siz_361	Si	0.44608	0.1253	0.53589
Oz_362	O	0.5	0.89377	0.60623
Oz_363	O	0.49677	0.99677	0.64066
Oz_364	O	0.5757	0.0757	0.46423
Oz_365	O	0.57063	0.07063	0.82115
Siz_366	Si	0.30392	0.1247	0.03589
Oz_367	O	0.25	0.35623	0.10623
Siz_368	Si	0.80392	0.6253	0.21411
Oz_369	O	0.75	0.39377	0.14377
Siz_370	Si	0.94608	0.6247	0.71411
Oz_371	O	0.0	0.85623	0.64377
Oz_372	O	0.99677	0.75323	0.60934
Oz_373	O	0.0757	0.6743	0.78577
Oz_374	O	0.07063	0.67937	0.42885
Siz_375	Si	0.53589	0.94608	0.6253
Oz_376	O	0.60623	0.0	0.39377
Oz_377	O	0.64066	0.99677	0.49677
Oz_378	O	0.46423	0.0757	0.5757
Oz_379	O	0.82115	0.07063	0.57063
Siz_380	Si	0.03589	0.80392	0.6247
Oz_381	O	0.10623	0.75	0.85623
Oz_382	O	0.14066	0.75323	0.75323
Oz_383	O	0.96423	0.6743	0.6743
Oz_384	O	0.32115	0.67937	0.67937
Siz_385	Si	0.21411	0.30392	0.1253
Oz_386	O	0.14377	0.25	0.89377
Siz_387	Si	0.71411	0.44608	0.1247
Oz_388	O	0.64377	0.5	0.35623
Siz_389	Si	0.6253	0.03589	0.44608
Oz_390	O	0.39377	0.10623	0.5
Oz_391	O	0.49677	0.14066	0.49677
Oz_392	O	0.5757	0.96423	0.5757
Oz_393	O	0.57063	0.32115	0.57063
Siz_394	Si	0.6247	0.53589	0.30392
Oz_395	O	0.85623	0.60623	0.25
Siz_396	Si	0.1253	0.71411	0.80392
Oz_397	O	0.89377	0.64377	0.75
Oz_398	O	0.99677	0.60934	0.75323
Oz_399	O	0.0757	0.78577	0.6743
Oz_400	O	0.07063	0.42885	0.67937
Siz_401	Si	0.1247	0.21411	0.94608
Oz_402	O	0.35623	0.14377	0.0
Siz_403	Si	0.3753	0.19608	0.96411
Siz_404	Si	0.3747	0.05392	0.46411
Oz_405	O	0.50323	0.00323	0.35934
Oz_406	O	0.4243	0.9243	0.53577
Oz_407	O	0.42937	0.92937	0.17885
Siz_408	Si	0.8753	0.55392	0.28589
Siz_409	Si	0.8747	0.69608	0.78589
Oz_410	O	0.00323	0.74677	0.89066
Oz_411	O	0.9243	0.8257	0.71423
Oz_412	O	0.92937	0.82063	0.07115
Siz_413	Si	0.19608	0.28589	0.8747
Siz_414	Si	0.05392	0.78589	0.8753
Oz_415	O	0.00323	0.89066	0.74677
Oz_416	O	0.9243	0.71423	0.8257
Oz_417	O	0.92937	0.07115	0.82063
Siz_418	Si	0.55392	0.96411	0.3747
Oz_419	O	0.50323	0.85934	0.50323
Oz_420	O	0.4243	0.03577	0.4243
Oz_421	O	0.42937	0.67885	0.42937
Siz_422	Si	0.69608	0.46411	0.3753
Siz_423	Si	0.28589	0.3753	0.05392
Siz_424	Si	0.78589	0.3747	0.19608
Siz_425	Si	0.96411	0.8753	0.69608
Oz_426	O	0.85934	0.74677	0.74677
Oz_427	O	0.03577	0.8257	0.8257
Oz_428	O	0.67885	0.82063	0.82063
Siz_429	Si	0.46411	0.8747	0.55392
Oz_430	O	0.35934	0.00323	0.50323
Oz_431	O	0.53577	0.9243	0.4243
Oz_432	O	0.17885	0.92937	0.42937
Siz_433	Si	0.55392	0.8747	0.46411
Oz_434	O	0.5	0.10623	0.39377
Siz_435	Si	0.69608	0.8753	0.96411
Oz_436	O	0.75	0.64377	0.89377
Siz_437	Si	0.19608	0.3747	0.78589
Oz_438	O	0.25	0.60623	0.85623
Siz_439	Si	0.05392	0.3753	0.28589
Oz_440	O	0.0	0.14377	0.35623
Oz_441	O	0.00323	0.24677	0.39066
Oz_442	O	0.9243	0.3257	0.21423
Oz_443	O	0.92937	0.32063	0.57115
Siz_444	Si	0.46411	0.05392	0.3747
Oz_445	O	0.39377	0.0	0.60623
Siz_446	Si	0.96411	0.19608	0.3753
Oz_447	O	0.89377	0.25	0.14377
Oz_448	O	0.85934	0.24677	0.24677
Oz_449	O	0.03577	0.3257	0.3257
Oz_450	O	0.67885	0.32063	0.32063
Siz_451	Si	0.78589	0.69608	0.8747
Oz_452	O	0.85623	0.75	0.10623
Siz_453	Si	0.28589	0.55392	0.8753
Oz_454	O	0.35623	0.5	0.64377
Siz_455	Si	0.3747	0.96411	0.55392
Oz_456	O	0.60623	0.89377	0.5
Siz_457	Si	0.3753	0.46411	0.69608
Oz_458	O	0.14377	0.39377	0.75
Siz_459	Si	0.8747	0.28589	0.19608
Oz_460	O	0.10623	0.35623	0.25
Oz_461	O	0.00323	0.39066	0.24677
Oz_462	O	0.9243	0.21423	0.3257
Oz_463	O	0.92937	0.57115	0.32063
Siz_464	Si	0.8753	0.78589	0.05392
Oz_465	O	0.64377	0.85623	0.0
Siz_466	Si	0.6247	0.80392	0.03589
Siz_467	Si	0.6253	0.94608	0.53589
Siz_468	Si	0.1247	0.44608	0.71411
Siz_469	Si	0.1253	0.30392	0.21411
Oz_470	O	0.99677	0.25323	0.10934
Oz_471	O	0.0757	0.1743	0.28577
Oz_472	O	0.07063	0.17937	0.92885
Siz_473	Si	0.80392	0.71411	0.1253
Siz_474	Si	0.94608	0.21411	0.1247
Oz_475	O	0.99677	0.10934	0.25323
Oz_476	O	0.0757	0.28577	0.1743
Oz_477	O	0.07063	0.92885	0.17937
Siz_478	Si	0.44608	0.03589	0.6253
Siz_479	Si	0.30392	0.53589	0.6247
Siz_480	Si	0.71411	0.6247	0.94608
Siz_481	Si	0.21411	0.6253	0.80392
Siz_482	Si	0.03589	0.1247	0.30392
Oz_483	O	0.14066	0.25323	0.25323
Oz_484	O	0.96423	0.1743	0.1743
Oz_485	O	0.32115	0.17937	0.17937
Siz_486	Si	0.53589	0.1253	0.44608
Siz_487	Si	0.44608	0.6253	0.03589
Oz_488	O	0.5	0.39377	0.10623
Oz_489	O	0.49677	0.49677	0.14066
Oz_490	O	0.5757	0.5757	0.96423
Oz_491	O	0.57063	0.57063	0.32115
Siz_492	Si	0.30392	0.6247	0.53589
Oz_493	O	0.25	0.85623	0.60623
Siz_494	Si	0.80392	0.1253	0.71411
Oz_495	O	0.75	0.89377	0.64377
Siz_496	Si	0.94608	0.1247	0.21411
Oz_497	O	0.0	0.35623	0.14377
Siz_498	Si	0.53589	0.44608	0.1253
Oz_499	O	0.60623	0.5	0.89377
Oz_500	O	0.64066	0.49677	0.99677
Oz_501	O	0.46423	0.5757	0.0757
Oz_502	O	0.82115	0.57063	0.07063
Siz_503	Si	0.03589	0.30392	0.1247
Oz_504	O	0.10623	0.25	0.35623
Siz_505	Si	0.21411	0.80392	0.6253
Oz_506	O	0.14377	0.75	0.39377
Siz_507	Si	0.71411	0.94608	0.6247
Oz_508	O	0.64377	0.0	0.85623
Siz_509	Si	0.6253	0.53589	0.94608
Oz_510	O	0.39377	0.60623	0.0
Oz_511	O	0.49677	0.64066	0.99677
Oz_512	O	0.5757	0.46423	0.0757
Oz_513	O	0.57063	0.82115	0.07063
Siz_514	Si	0.6247	0.03589	0.80392
Oz_515	O	0.85623	0.10623	0.75
Siz_516	Si	0.1253	0.21411	0.30392
Oz_517	O	0.89377	0.14377	0.25
Siz_518	Si	0.1247	0.71411	0.44608
Oz_519	O	0.35623	0.64377	0.5
Siz_520	Si	0.3753	0.69608	0.46411
Siz_521	Si	0.3747	0.55392	0.96411
Oz_522	O	0.50323	0.50323	0.85934
Oz_523	O	0.4243	0.4243	0.03577
Oz_524	O	0.42937	0.42937	0.67885
Siz_525	Si	0.8753	0.05392	0.78589
Siz_526	Si	0.8747	0.19608	0.28589
Siz_527	Si	0.19608	0.78589	0.3747
Siz_528	Si	0.05392	0.28589	0.3753
Siz_529	Si	0.55392	0.46411	0.8747
Oz_530	O	0.50323	0.35934	0.00323
Oz_531	O	0.4243	0.53577	0.9243
Oz_532	O	0.42937	0.17885	0.92937
Siz_533	Si	0.69608	0.96411	0.8753
Siz_534	Si	0.28589	0.8753	0.55392
Siz_535	Si	0.78589	0.8747	0.69608
Siz_536	Si	0.96411	0.3753	0.19608
Siz_537	Si	0.46411	0.3747	0.05392
Oz_538	O	0.35934	0.50323	0.00323
Oz_539	O	0.53577	0.4243	0.9243
Oz_540	O	0.17885	0.42937	0.92937
Siz_541	Si	0.55392	0.3747	0.96411
Oz_542	O	0.5	0.60623	0.89377
Siz_543	Si	0.69608	0.3753	0.46411
Oz_544	O	0.75	0.14377	0.39377
Siz_545	Si	0.19608	0.8747	0.28589
Oz_546	O	0.25	0.10623	0.35623
Siz_547	Si	0.05392	0.8753	0.78589
Oz_548	O	0.0	0.64377	0.85623
Siz_549	Si	0.46411	0.55392	0.8747
Oz_550	O	0.39377	0.5	0.10623
Siz_551	Si	0.96411	0.69608	0.8753
Oz_552	O	0.89377	0.75	0.64377
Siz_553	Si	0.78589	0.19608	0.3747
Oz_554	O	0.85623	0.25	0.60623
Siz_555	Si	0.28589	0.05392	0.3753
Oz_556	O	0.35623	0.0	0.14377
Siz_557	Si	0.3747	0.46411	0.05392
Oz_558	O	0.60623	0.39377	0.0
Siz_559	Si	0.3753	0.96411	0.19608
Oz_560	O	0.14377	0.89377	0.25
Siz_561	Si	0.8747	0.78589	0.69608
Oz_562	O	0.10623	0.85623	0.75
Siz_563	Si	0.8753	0.28589	0.55392
Oz_564	O	0.64377	0.35623	0.5
Siz_565	Si	0.6247	0.30392	0.53589
Siz_566	Si	0.6253	0.44608	0.03589
Siz_567	Si	0.1247	0.94608	0.21411
Siz_568	Si	0.1253	0.80392	0.71411
Siz_569	Si	0.80392	0.21411	0.6253
Siz_570	Si	0.94608	0.71411	0.6247
Siz_571	Si	0.44608	0.53589	0.1253
Siz_572	Si	0.30392	0.03589	0.1247
Siz_573	Si	0.71411	0.1247	0.44608
Siz_574	Si	0.21411	0.1253	0.30392
Siz_575	Si	0.03589	0.6247	0.80392
Siz_576	Si	0.53589	0.6253	0.94608


#END
