data_LTA.cif



_cell_length_a		24.555
_cell_length_b		24.555
_cell_length_c		24.555
_cell_angle_alpha		90.0
_cell_angle_beta		90.0
_cell_angle_gamma		90.0

_symmetry_space_group_name_H-M	'P 1'
_symmetry_Int_Tables_number	1
_symmetry_cell_setting	triclinic

loop_
_symmetry_equiv_pos_as_xyz
x,y,z

loop_
_atom_site_label
_atom_site_type_symbol
_atom_site_fract_x
_atom_site_fract_y
_atom_site_fract_z
Siz_1	Si	0.0	0.09316	0.18499
Siz_2	Si	0.0	0.18715	0.09042
Oz_3	O	0.0	0.11367	0.24663
Oz_4	O	0.0	0.14459	0.14591
Oz_5	O	0.05379	0.05865	0.17152
Siz_6	Si	0.0	0.90684	0.18499
Siz_7	Si	0.0	0.81285	0.09042
Oz_8	O	0.0	0.88633	0.24663
Oz_9	O	0.0	0.85541	0.14591
Oz_10	O	0.94621	0.94135	0.17152
Siz_11	Si	0.0	0.09316	0.81501
Siz_12	Si	0.0	0.18715	0.90958
Oz_13	O	0.0	0.11367	0.75337
Oz_14	O	0.0	0.14459	0.85409
Oz_15	O	0.94621	0.05865	0.82848
Siz_16	Si	0.0	0.90684	0.81501
Siz_17	Si	0.0	0.81285	0.90958
Oz_18	O	0.0	0.88633	0.75337
Oz_19	O	0.0	0.85541	0.85409
Oz_20	O	0.05379	0.94135	0.82848
Siz_21	Si	0.18499	0.0	0.09316
Siz_22	Si	0.09042	0.0	0.18715
Oz_23	O	0.24663	0.0	0.11367
Oz_24	O	0.14591	0.0	0.14459
Oz_25	O	0.17152	0.05379	0.05865
Siz_26	Si	0.18499	0.0	0.90684
Siz_27	Si	0.09042	0.0	0.81285
Oz_28	O	0.24663	0.0	0.88633
Oz_29	O	0.14591	0.0	0.85541
Oz_30	O	0.17152	0.94621	0.94135
Siz_31	Si	0.81501	0.0	0.09316
Siz_32	Si	0.90958	0.0	0.18715
Oz_33	O	0.75337	0.0	0.11367
Oz_34	O	0.85409	0.0	0.14459
Oz_35	O	0.82848	0.94621	0.05865
Siz_36	Si	0.81501	0.0	0.90684
Siz_37	Si	0.90958	0.0	0.81285
Oz_38	O	0.75337	0.0	0.88633
Oz_39	O	0.85409	0.0	0.85541
Oz_40	O	0.82848	0.05379	0.94135
Siz_41	Si	0.09316	0.18499	0.0
Siz_42	Si	0.18715	0.09042	0.0
Oz_43	O	0.11367	0.24663	0.0
Oz_44	O	0.14459	0.14591	0.0
Oz_45	O	0.05865	0.17152	0.05379
Siz_46	Si	0.90684	0.18499	0.0
Siz_47	Si	0.81285	0.09042	0.0
Oz_48	O	0.88633	0.24663	0.0
Oz_49	O	0.85541	0.14591	0.0
Oz_50	O	0.94135	0.17152	0.94621
Siz_51	Si	0.09316	0.81501	0.0
Siz_52	Si	0.18715	0.90958	0.0
Oz_53	O	0.11367	0.75337	0.0
Oz_54	O	0.14459	0.85409	0.0
Oz_55	O	0.05865	0.82848	0.94621
Siz_56	Si	0.90684	0.81501	0.0
Siz_57	Si	0.81285	0.90958	0.0
Oz_58	O	0.88633	0.75337	0.0
Oz_59	O	0.85541	0.85409	0.0
Oz_60	O	0.94135	0.82848	0.05379
Siz_61	Si	0.59316	0.5	0.31501
Siz_62	Si	0.68715	0.5	0.40958
Oz_63	O	0.61367	0.5	0.25337
Oz_64	O	0.64459	0.5	0.35409
Oz_65	O	0.55865	0.55379	0.32848
Siz_66	Si	0.40684	0.5	0.31501
Siz_67	Si	0.31285	0.5	0.40958
Oz_68	O	0.38633	0.5	0.25337
Oz_69	O	0.35541	0.5	0.35409
Oz_70	O	0.44135	0.44621	0.32848
Siz_71	Si	0.59316	0.5	0.68499
Siz_72	Si	0.68715	0.5	0.59042
Oz_73	O	0.61367	0.5	0.74663
Oz_74	O	0.64459	0.5	0.64591
Oz_75	O	0.55865	0.44621	0.67152
Siz_76	Si	0.40684	0.5	0.68499
Siz_77	Si	0.31285	0.5	0.59042
Oz_78	O	0.38633	0.5	0.74663
Oz_79	O	0.35541	0.5	0.64591
Oz_80	O	0.44135	0.55379	0.67152
Siz_81	Si	0.5	0.68499	0.40684
Siz_82	Si	0.5	0.59042	0.31285
Oz_83	O	0.5	0.74663	0.38633
Oz_84	O	0.5	0.64591	0.35541
Oz_85	O	0.55379	0.67152	0.44135
Siz_86	Si	0.5	0.68499	0.59316
Siz_87	Si	0.5	0.59042	0.68715
Oz_88	O	0.5	0.74663	0.61367
Oz_89	O	0.5	0.64591	0.64459
Oz_90	O	0.44621	0.67152	0.55865
Siz_91	Si	0.5	0.31501	0.40684
Siz_92	Si	0.5	0.40958	0.31285
Oz_93	O	0.5	0.25337	0.38633
Oz_94	O	0.5	0.35409	0.35541
Oz_95	O	0.44621	0.32848	0.44135
Siz_96	Si	0.5	0.31501	0.59316
Siz_97	Si	0.5	0.40958	0.68715
Oz_98	O	0.5	0.25337	0.61367
Oz_99	O	0.5	0.35409	0.64459
Oz_100	O	0.55379	0.32848	0.55865
Siz_101	Si	0.68499	0.59316	0.5
Siz_102	Si	0.59042	0.68715	0.5
Oz_103	O	0.74663	0.61367	0.5
Oz_104	O	0.64591	0.64459	0.5
Oz_105	O	0.67152	0.55865	0.44621
Siz_106	Si	0.68499	0.40684	0.5
Siz_107	Si	0.59042	0.31285	0.5
Oz_108	O	0.74663	0.38633	0.5
Oz_109	O	0.64591	0.35541	0.5
Oz_110	O	0.67152	0.44135	0.55379
Siz_111	Si	0.31501	0.59316	0.5
Siz_112	Si	0.40958	0.68715	0.5
Oz_113	O	0.25337	0.61367	0.5
Oz_114	O	0.35409	0.64459	0.5
Oz_115	O	0.32848	0.55865	0.55379
Siz_116	Si	0.31501	0.40684	0.5
Siz_117	Si	0.40958	0.31285	0.5
Oz_118	O	0.25337	0.38633	0.5
Oz_119	O	0.35409	0.35541	0.5
Oz_120	O	0.32848	0.44135	0.44621
Oz_121	O	0.94621	0.94135	0.82848
Oz_122	O	0.05379	0.05865	0.82848
Oz_123	O	0.05379	0.94135	0.17152
Oz_124	O	0.94621	0.05865	0.17152
Oz_125	O	0.82848	0.94621	0.94135
Oz_126	O	0.82848	0.05379	0.05865
Oz_127	O	0.17152	0.05379	0.94135
Oz_128	O	0.17152	0.94621	0.05865
Oz_129	O	0.94135	0.82848	0.94621
Oz_130	O	0.05865	0.82848	0.05379
Oz_131	O	0.94135	0.17152	0.05379
Oz_132	O	0.05865	0.17152	0.94621
Oz_133	O	0.44135	0.44621	0.67152
Oz_134	O	0.55865	0.55379	0.67152
Oz_135	O	0.44135	0.55379	0.32848
Oz_136	O	0.55865	0.44621	0.32848
Oz_137	O	0.44621	0.32848	0.55865
Oz_138	O	0.55379	0.32848	0.44135
Oz_139	O	0.55379	0.67152	0.55865
Oz_140	O	0.44621	0.67152	0.44135
Oz_141	O	0.32848	0.44135	0.55379
Oz_142	O	0.32848	0.55865	0.44621
Oz_143	O	0.67152	0.44135	0.44621
Oz_144	O	0.67152	0.55865	0.55379
Siz_145	Si	0.0	0.59316	0.68499
Siz_146	Si	0.0	0.68715	0.59042
Oz_147	O	0.0	0.61367	0.74663
Oz_148	O	0.0	0.64459	0.64591
Oz_149	O	0.05379	0.55865	0.67152
Siz_150	Si	0.0	0.40684	0.68499
Siz_151	Si	0.0	0.31285	0.59042
Oz_152	O	0.0	0.38633	0.74663
Oz_153	O	0.0	0.35541	0.64591
Oz_154	O	0.94621	0.44135	0.67152
Siz_155	Si	0.0	0.59316	0.31501
Siz_156	Si	0.0	0.68715	0.40958
Oz_157	O	0.0	0.61367	0.25337
Oz_158	O	0.0	0.64459	0.35409
Oz_159	O	0.94621	0.55865	0.32848
Siz_160	Si	0.0	0.40684	0.31501
Siz_161	Si	0.0	0.31285	0.40958
Oz_162	O	0.0	0.38633	0.25337
Oz_163	O	0.0	0.35541	0.35409
Oz_164	O	0.05379	0.44135	0.32848
Siz_165	Si	0.18499	0.5	0.59316
Siz_166	Si	0.09042	0.5	0.68715
Oz_167	O	0.24663	0.5	0.61367
Oz_168	O	0.14591	0.5	0.64459
Oz_169	O	0.17152	0.55379	0.55865
Siz_170	Si	0.18499	0.5	0.40684
Siz_171	Si	0.09042	0.5	0.31285
Oz_172	O	0.24663	0.5	0.38633
Oz_173	O	0.14591	0.5	0.35541
Oz_174	O	0.17152	0.44621	0.44135
Siz_175	Si	0.81501	0.5	0.59316
Siz_176	Si	0.90958	0.5	0.68715
Oz_177	O	0.75337	0.5	0.61367
Oz_178	O	0.85409	0.5	0.64459
Oz_179	O	0.82848	0.44621	0.55865
Siz_180	Si	0.81501	0.5	0.40684
Siz_181	Si	0.90958	0.5	0.31285
Oz_182	O	0.75337	0.5	0.38633
Oz_183	O	0.85409	0.5	0.35541
Oz_184	O	0.82848	0.55379	0.44135
Siz_185	Si	0.09316	0.68499	0.5
Siz_186	Si	0.18715	0.59042	0.5
Oz_187	O	0.11367	0.74663	0.5
Oz_188	O	0.14459	0.64591	0.5
Oz_189	O	0.05865	0.67152	0.55379
Siz_190	Si	0.90684	0.68499	0.5
Siz_191	Si	0.81285	0.59042	0.5
Oz_192	O	0.88633	0.74663	0.5
Oz_193	O	0.85541	0.64591	0.5
Oz_194	O	0.94135	0.67152	0.44621
Siz_195	Si	0.09316	0.31501	0.5
Siz_196	Si	0.18715	0.40958	0.5
Oz_197	O	0.11367	0.25337	0.5
Oz_198	O	0.14459	0.35409	0.5
Oz_199	O	0.05865	0.32848	0.44621
Siz_200	Si	0.90684	0.31501	0.5
Siz_201	Si	0.81285	0.40958	0.5
Oz_202	O	0.88633	0.25337	0.5
Oz_203	O	0.85541	0.35409	0.5
Oz_204	O	0.94135	0.32848	0.55379
Siz_205	Si	0.59316	0.0	0.81501
Siz_206	Si	0.68715	0.0	0.90958
Oz_207	O	0.61367	0.0	0.75337
Oz_208	O	0.64459	0.0	0.85409
Oz_209	O	0.55865	0.05379	0.82848
Siz_210	Si	0.40684	0.0	0.81501
Siz_211	Si	0.31285	0.0	0.90958
Oz_212	O	0.38633	0.0	0.75337
Oz_213	O	0.35541	0.0	0.85409
Oz_214	O	0.44135	0.94621	0.82848
Siz_215	Si	0.59316	0.0	0.18499
Siz_216	Si	0.68715	0.0	0.09042
Oz_217	O	0.61367	0.0	0.24663
Oz_218	O	0.64459	0.0	0.14591
Oz_219	O	0.55865	0.94621	0.17152
Siz_220	Si	0.40684	0.0	0.18499
Siz_221	Si	0.31285	0.0	0.09042
Oz_222	O	0.38633	0.0	0.24663
Oz_223	O	0.35541	0.0	0.14591
Oz_224	O	0.44135	0.05379	0.17152
Siz_225	Si	0.5	0.18499	0.90684
Siz_226	Si	0.5	0.09042	0.81285
Oz_227	O	0.5	0.24663	0.88633
Oz_228	O	0.5	0.14591	0.85541
Oz_229	O	0.55379	0.17152	0.94135
Siz_230	Si	0.5	0.18499	0.09316
Siz_231	Si	0.5	0.09042	0.18715
Oz_232	O	0.5	0.24663	0.11367
Oz_233	O	0.5	0.14591	0.14459
Oz_234	O	0.44621	0.17152	0.05865
Siz_235	Si	0.5	0.81501	0.90684
Siz_236	Si	0.5	0.90958	0.81285
Oz_237	O	0.5	0.75337	0.88633
Oz_238	O	0.5	0.85409	0.85541
Oz_239	O	0.44621	0.82848	0.94135
Siz_240	Si	0.5	0.81501	0.09316
Siz_241	Si	0.5	0.90958	0.18715
Oz_242	O	0.5	0.75337	0.11367
Oz_243	O	0.5	0.85409	0.14459
Oz_244	O	0.55379	0.82848	0.05865
Siz_245	Si	0.68499	0.09316	0.0
Siz_246	Si	0.59042	0.18715	0.0
Oz_247	O	0.74663	0.11367	0.0
Oz_248	O	0.64591	0.14459	0.0
Oz_249	O	0.67152	0.05865	0.94621
Siz_250	Si	0.68499	0.90684	0.0
Siz_251	Si	0.59042	0.81285	0.0
Oz_252	O	0.74663	0.88633	0.0
Oz_253	O	0.64591	0.85541	0.0
Oz_254	O	0.67152	0.94135	0.05379
Siz_255	Si	0.31501	0.09316	0.0
Siz_256	Si	0.40958	0.18715	0.0
Oz_257	O	0.25337	0.11367	0.0
Oz_258	O	0.35409	0.14459	0.0
Oz_259	O	0.32848	0.05865	0.05379
Siz_260	Si	0.31501	0.90684	0.0
Siz_261	Si	0.40958	0.81285	0.0
Oz_262	O	0.25337	0.88633	0.0
Oz_263	O	0.35409	0.85541	0.0
Oz_264	O	0.32848	0.94135	0.94621
Oz_265	O	0.94621	0.44135	0.32848
Oz_266	O	0.05379	0.55865	0.32848
Oz_267	O	0.05379	0.44135	0.67152
Oz_268	O	0.94621	0.55865	0.67152
Oz_269	O	0.82848	0.44621	0.44135
Oz_270	O	0.82848	0.55379	0.55865
Oz_271	O	0.17152	0.55379	0.44135
Oz_272	O	0.17152	0.44621	0.55865
Oz_273	O	0.94135	0.32848	0.44621
Oz_274	O	0.05865	0.32848	0.55379
Oz_275	O	0.94135	0.67152	0.55379
Oz_276	O	0.05865	0.67152	0.44621
Oz_277	O	0.44135	0.94621	0.17152
Oz_278	O	0.55865	0.05379	0.17152
Oz_279	O	0.44135	0.05379	0.82848
Oz_280	O	0.55865	0.94621	0.82848
Oz_281	O	0.44621	0.82848	0.05865
Oz_282	O	0.55379	0.82848	0.94135
Oz_283	O	0.55379	0.17152	0.05865
Oz_284	O	0.44621	0.17152	0.94135
Oz_285	O	0.32848	0.94135	0.05379
Oz_286	O	0.32848	0.05865	0.94621
Oz_287	O	0.67152	0.94135	0.94621
Oz_288	O	0.67152	0.05865	0.05379
Siz_289	Si	0.5	0.09316	0.68499
Siz_290	Si	0.5	0.18715	0.59042
Oz_291	O	0.5	0.11367	0.74663
Oz_292	O	0.5	0.14459	0.64591
Oz_293	O	0.55379	0.05865	0.67152
Siz_294	Si	0.5	0.90684	0.68499
Siz_295	Si	0.5	0.81285	0.59042
Oz_296	O	0.5	0.88633	0.74663
Oz_297	O	0.5	0.85541	0.64591
Oz_298	O	0.44621	0.94135	0.67152
Siz_299	Si	0.5	0.09316	0.31501
Siz_300	Si	0.5	0.18715	0.40958
Oz_301	O	0.5	0.11367	0.25337
Oz_302	O	0.5	0.14459	0.35409
Oz_303	O	0.44621	0.05865	0.32848
Siz_304	Si	0.5	0.90684	0.31501
Siz_305	Si	0.5	0.81285	0.40958
Oz_306	O	0.5	0.88633	0.25337
Oz_307	O	0.5	0.85541	0.35409
Oz_308	O	0.55379	0.94135	0.32848
Siz_309	Si	0.68499	0.0	0.59316
Siz_310	Si	0.59042	0.0	0.68715
Oz_311	O	0.74663	0.0	0.61367
Oz_312	O	0.64591	0.0	0.64459
Oz_313	O	0.67152	0.05379	0.55865
Siz_314	Si	0.68499	0.0	0.40684
Siz_315	Si	0.59042	0.0	0.31285
Oz_316	O	0.74663	0.0	0.38633
Oz_317	O	0.64591	0.0	0.35541
Oz_318	O	0.67152	0.94621	0.44135
Siz_319	Si	0.31501	0.0	0.59316
Siz_320	Si	0.40958	0.0	0.68715
Oz_321	O	0.25337	0.0	0.61367
Oz_322	O	0.35409	0.0	0.64459
Oz_323	O	0.32848	0.94621	0.55865
Siz_324	Si	0.31501	0.0	0.40684
Siz_325	Si	0.40958	0.0	0.31285
Oz_326	O	0.25337	0.0	0.38633
Oz_327	O	0.35409	0.0	0.35541
Oz_328	O	0.32848	0.05379	0.44135
Siz_329	Si	0.59316	0.18499	0.5
Siz_330	Si	0.68715	0.09042	0.5
Oz_331	O	0.61367	0.24663	0.5
Oz_332	O	0.64459	0.14591	0.5
Oz_333	O	0.55865	0.17152	0.55379
Siz_334	Si	0.40684	0.18499	0.5
Siz_335	Si	0.31285	0.09042	0.5
Oz_336	O	0.38633	0.24663	0.5
Oz_337	O	0.35541	0.14591	0.5
Oz_338	O	0.44135	0.17152	0.44621
Siz_339	Si	0.59316	0.81501	0.5
Siz_340	Si	0.68715	0.90958	0.5
Oz_341	O	0.61367	0.75337	0.5
Oz_342	O	0.64459	0.85409	0.5
Oz_343	O	0.55865	0.82848	0.44621
Siz_344	Si	0.40684	0.81501	0.5
Siz_345	Si	0.31285	0.90958	0.5
Oz_346	O	0.38633	0.75337	0.5
Oz_347	O	0.35541	0.85409	0.5
Oz_348	O	0.44135	0.82848	0.55379
Siz_349	Si	0.09316	0.5	0.81501
Siz_350	Si	0.18715	0.5	0.90958
Oz_351	O	0.11367	0.5	0.75337
Oz_352	O	0.14459	0.5	0.85409
Oz_353	O	0.05865	0.55379	0.82848
Siz_354	Si	0.90684	0.5	0.81501
Siz_355	Si	0.81285	0.5	0.90958
Oz_356	O	0.88633	0.5	0.75337
Oz_357	O	0.85541	0.5	0.85409
Oz_358	O	0.94135	0.44621	0.82848
Siz_359	Si	0.09316	0.5	0.18499
Siz_360	Si	0.18715	0.5	0.09042
Oz_361	O	0.11367	0.5	0.24663
Oz_362	O	0.14459	0.5	0.14591
Oz_363	O	0.05865	0.44621	0.17152
Siz_364	Si	0.90684	0.5	0.18499
Siz_365	Si	0.81285	0.5	0.09042
Oz_366	O	0.88633	0.5	0.24663
Oz_367	O	0.85541	0.5	0.14591
Oz_368	O	0.94135	0.55379	0.17152
Siz_369	Si	0.0	0.68499	0.90684
Siz_370	Si	0.0	0.59042	0.81285
Oz_371	O	0.0	0.74663	0.88633
Oz_372	O	0.0	0.64591	0.85541
Oz_373	O	0.05379	0.67152	0.94135
Siz_374	Si	0.0	0.68499	0.09316
Siz_375	Si	0.0	0.59042	0.18715
Oz_376	O	0.0	0.74663	0.11367
Oz_377	O	0.0	0.64591	0.14459
Oz_378	O	0.94621	0.67152	0.05865
Siz_379	Si	0.0	0.31501	0.90684
Siz_380	Si	0.0	0.40958	0.81285
Oz_381	O	0.0	0.25337	0.88633
Oz_382	O	0.0	0.35409	0.85541
Oz_383	O	0.94621	0.32848	0.94135
Siz_384	Si	0.0	0.31501	0.09316
Siz_385	Si	0.0	0.40958	0.18715
Oz_386	O	0.0	0.25337	0.11367
Oz_387	O	0.0	0.35409	0.14459
Oz_388	O	0.05379	0.32848	0.05865
Siz_389	Si	0.18499	0.59316	0.0
Siz_390	Si	0.09042	0.68715	0.0
Oz_391	O	0.24663	0.61367	0.0
Oz_392	O	0.14591	0.64459	0.0
Oz_393	O	0.17152	0.55865	0.94621
Siz_394	Si	0.18499	0.40684	0.0
Siz_395	Si	0.09042	0.31285	0.0
Oz_396	O	0.24663	0.38633	0.0
Oz_397	O	0.14591	0.35541	0.0
Oz_398	O	0.17152	0.44135	0.05379
Siz_399	Si	0.81501	0.59316	0.0
Siz_400	Si	0.90958	0.68715	0.0
Oz_401	O	0.75337	0.61367	0.0
Oz_402	O	0.85409	0.64459	0.0
Oz_403	O	0.82848	0.55865	0.05379
Siz_404	Si	0.81501	0.40684	0.0
Siz_405	Si	0.90958	0.31285	0.0
Oz_406	O	0.75337	0.38633	0.0
Oz_407	O	0.85409	0.35541	0.0
Oz_408	O	0.82848	0.44135	0.94621
Oz_409	O	0.44621	0.94135	0.32848
Oz_410	O	0.55379	0.05865	0.32848
Oz_411	O	0.55379	0.94135	0.67152
Oz_412	O	0.44621	0.05865	0.67152
Oz_413	O	0.32848	0.94621	0.44135
Oz_414	O	0.32848	0.05379	0.55865
Oz_415	O	0.67152	0.05379	0.44135
Oz_416	O	0.67152	0.94621	0.55865
Oz_417	O	0.44135	0.82848	0.44621
Oz_418	O	0.55865	0.82848	0.55379
Oz_419	O	0.44135	0.17152	0.55379
Oz_420	O	0.55865	0.17152	0.44621
Oz_421	O	0.94135	0.44621	0.17152
Oz_422	O	0.05865	0.55379	0.17152
Oz_423	O	0.94135	0.55379	0.82848
Oz_424	O	0.05865	0.44621	0.82848
Oz_425	O	0.94621	0.32848	0.05865
Oz_426	O	0.05379	0.32848	0.94135
Oz_427	O	0.05379	0.67152	0.05865
Oz_428	O	0.94621	0.67152	0.94135
Oz_429	O	0.82848	0.44135	0.05379
Oz_430	O	0.82848	0.55865	0.94621
Oz_431	O	0.17152	0.44135	0.94621
Oz_432	O	0.17152	0.55865	0.05379
Siz_433	Si	0.5	0.59316	0.18499
Siz_434	Si	0.5	0.68715	0.09042
Oz_435	O	0.5	0.61367	0.24663
Oz_436	O	0.5	0.64459	0.14591
Oz_437	O	0.55379	0.55865	0.17152
Siz_438	Si	0.5	0.40684	0.18499
Siz_439	Si	0.5	0.31285	0.09042
Oz_440	O	0.5	0.38633	0.24663
Oz_441	O	0.5	0.35541	0.14591
Oz_442	O	0.44621	0.44135	0.17152
Siz_443	Si	0.5	0.59316	0.81501
Siz_444	Si	0.5	0.68715	0.90958
Oz_445	O	0.5	0.61367	0.75337
Oz_446	O	0.5	0.64459	0.85409
Oz_447	O	0.44621	0.55865	0.82848
Siz_448	Si	0.5	0.40684	0.81501
Siz_449	Si	0.5	0.31285	0.90958
Oz_450	O	0.5	0.38633	0.75337
Oz_451	O	0.5	0.35541	0.85409
Oz_452	O	0.55379	0.44135	0.82848
Siz_453	Si	0.68499	0.5	0.09316
Siz_454	Si	0.59042	0.5	0.18715
Oz_455	O	0.74663	0.5	0.11367
Oz_456	O	0.64591	0.5	0.14459
Oz_457	O	0.67152	0.55379	0.05865
Siz_458	Si	0.68499	0.5	0.90684
Siz_459	Si	0.59042	0.5	0.81285
Oz_460	O	0.74663	0.5	0.88633
Oz_461	O	0.64591	0.5	0.85541
Oz_462	O	0.67152	0.44621	0.94135
Siz_463	Si	0.31501	0.5	0.09316
Siz_464	Si	0.40958	0.5	0.18715
Oz_465	O	0.25337	0.5	0.11367
Oz_466	O	0.35409	0.5	0.14459
Oz_467	O	0.32848	0.44621	0.05865
Siz_468	Si	0.31501	0.5	0.90684
Siz_469	Si	0.40958	0.5	0.81285
Oz_470	O	0.25337	0.5	0.88633
Oz_471	O	0.35409	0.5	0.85541
Oz_472	O	0.32848	0.55379	0.94135
Siz_473	Si	0.59316	0.68499	0.0
Siz_474	Si	0.68715	0.59042	0.0
Oz_475	O	0.61367	0.74663	0.0
Oz_476	O	0.64459	0.64591	0.0
Oz_477	O	0.55865	0.67152	0.05379
Siz_478	Si	0.40684	0.68499	0.0
Siz_479	Si	0.31285	0.59042	0.0
Oz_480	O	0.38633	0.74663	0.0
Oz_481	O	0.35541	0.64591	0.0
Oz_482	O	0.44135	0.67152	0.94621
Siz_483	Si	0.59316	0.31501	0.0
Siz_484	Si	0.68715	0.40958	0.0
Oz_485	O	0.61367	0.25337	0.0
Oz_486	O	0.64459	0.35409	0.0
Oz_487	O	0.55865	0.32848	0.94621
Siz_488	Si	0.40684	0.31501	0.0
Siz_489	Si	0.31285	0.40958	0.0
Oz_490	O	0.38633	0.25337	0.0
Oz_491	O	0.35541	0.35409	0.0
Oz_492	O	0.44135	0.32848	0.05379
Siz_493	Si	0.09316	0.0	0.31501
Siz_494	Si	0.18715	0.0	0.40958
Oz_495	O	0.11367	0.0	0.25337
Oz_496	O	0.14459	0.0	0.35409
Oz_497	O	0.05865	0.05379	0.32848
Siz_498	Si	0.90684	0.0	0.31501
Siz_499	Si	0.81285	0.0	0.40958
Oz_500	O	0.88633	0.0	0.25337
Oz_501	O	0.85541	0.0	0.35409
Oz_502	O	0.94135	0.94621	0.32848
Siz_503	Si	0.09316	0.0	0.68499
Siz_504	Si	0.18715	0.0	0.59042
Oz_505	O	0.11367	0.0	0.74663
Oz_506	O	0.14459	0.0	0.64591
Oz_507	O	0.05865	0.94621	0.67152
Siz_508	Si	0.90684	0.0	0.68499
Siz_509	Si	0.81285	0.0	0.59042
Oz_510	O	0.88633	0.0	0.74663
Oz_511	O	0.85541	0.0	0.64591
Oz_512	O	0.94135	0.05379	0.67152
Siz_513	Si	0.0	0.18499	0.40684
Siz_514	Si	0.0	0.09042	0.31285
Oz_515	O	0.0	0.24663	0.38633
Oz_516	O	0.0	0.14591	0.35541
Oz_517	O	0.05379	0.17152	0.44135
Siz_518	Si	0.0	0.18499	0.59316
Siz_519	Si	0.0	0.09042	0.68715
Oz_520	O	0.0	0.24663	0.61367
Oz_521	O	0.0	0.14591	0.64459
Oz_522	O	0.94621	0.17152	0.55865
Siz_523	Si	0.0	0.81501	0.40684
Siz_524	Si	0.0	0.90958	0.31285
Oz_525	O	0.0	0.75337	0.38633
Oz_526	O	0.0	0.85409	0.35541
Oz_527	O	0.94621	0.82848	0.44135
Siz_528	Si	0.0	0.81501	0.59316
Siz_529	Si	0.0	0.90958	0.68715
Oz_530	O	0.0	0.75337	0.61367
Oz_531	O	0.0	0.85409	0.64459
Oz_532	O	0.05379	0.82848	0.55865
Siz_533	Si	0.18499	0.09316	0.5
Siz_534	Si	0.09042	0.18715	0.5
Oz_535	O	0.24663	0.11367	0.5
Oz_536	O	0.14591	0.14459	0.5
Oz_537	O	0.17152	0.05865	0.44621
Siz_538	Si	0.18499	0.90684	0.5
Siz_539	Si	0.09042	0.81285	0.5
Oz_540	O	0.24663	0.88633	0.5
Oz_541	O	0.14591	0.85541	0.5
Oz_542	O	0.17152	0.94135	0.55379
Siz_543	Si	0.81501	0.09316	0.5
Siz_544	Si	0.90958	0.18715	0.5
Oz_545	O	0.75337	0.11367	0.5
Oz_546	O	0.85409	0.14459	0.5
Oz_547	O	0.82848	0.05865	0.55379
Siz_548	Si	0.81501	0.90684	0.5
Siz_549	Si	0.90958	0.81285	0.5
Oz_550	O	0.75337	0.88633	0.5
Oz_551	O	0.85409	0.85541	0.5
Oz_552	O	0.82848	0.94135	0.44621
Oz_553	O	0.44621	0.44135	0.82848
Oz_554	O	0.55379	0.55865	0.82848
Oz_555	O	0.55379	0.44135	0.17152
Oz_556	O	0.44621	0.55865	0.17152
Oz_557	O	0.32848	0.44621	0.94135
Oz_558	O	0.32848	0.55379	0.05865
Oz_559	O	0.67152	0.55379	0.94135
Oz_560	O	0.67152	0.44621	0.05865
Oz_561	O	0.44135	0.32848	0.94621
Oz_562	O	0.55865	0.32848	0.05379
Oz_563	O	0.44135	0.67152	0.05379
Oz_564	O	0.55865	0.67152	0.94621
Oz_565	O	0.94135	0.94621	0.67152
Oz_566	O	0.05865	0.05379	0.67152
Oz_567	O	0.94135	0.05379	0.32848
Oz_568	O	0.05865	0.94621	0.32848
Oz_569	O	0.94621	0.82848	0.55865
Oz_570	O	0.05379	0.82848	0.44135
Oz_571	O	0.05379	0.17152	0.55865
Oz_572	O	0.94621	0.17152	0.44135
Oz_573	O	0.82848	0.94135	0.55379
Oz_574	O	0.82848	0.05865	0.44621
Oz_575	O	0.17152	0.94135	0.44621
Oz_576	O	0.17152	0.05865	0.55379


#END
