
#======================================================================
# CRYSTAL DATA
#----------------------------------------------------------------------
data_VESTA_phase_1

_chemical_name_common                  'Mini'
_cell_length_a                         26.037399
_cell_length_b                         33.618900
_cell_length_c                         28.127399
_cell_angle_alpha                      92.820000
_cell_angle_beta                       107.199997
_cell_angle_gamma                      103.260002
_cell_volume                           22711.070477
_space_group_name_H-M_alt              'P 1'
_space_group_IT_number                 1

loop_
_space_group_symop_operation_xyz
   'x, y, z'

loop_
   _atom_site_label
   _atom_site_occupancy
   _atom_site_fract_x
   _atom_site_fract_y
   _atom_site_fract_z
   _atom_site_adp_type
   _atom_site_U_iso_or_equiv
   _atom_site_type_symbol
   Oz_1       1.0     0.111800     0.168633     0.016567    Uiso  ? O
   Oz_1       1.0     0.111800     0.168633     0.349900    Uiso  ? O
   Oz_1       1.0     0.111800     0.168633     0.683233    Uiso  ? O
   Oz_1       1.0     0.111800     0.501967     0.016567    Uiso  ? O
   Oz_1       1.0     0.111800     0.501967     0.349900    Uiso  ? O
   Oz_1       1.0     0.111800     0.501967     0.683233    Uiso  ? O
   Oz_1       1.0     0.111800     0.835300     0.016567    Uiso  ? O
   Oz_1       1.0     0.111800     0.835300     0.349900    Uiso  ? O
   Oz_1       1.0     0.111800     0.835300     0.683233    Uiso  ? O
   Oz_1       1.0     0.611800     0.168633     0.016567    Uiso  ? O
   Oz_1       1.0     0.611800     0.168633     0.349900    Uiso  ? O
   Oz_1       1.0     0.611800     0.168633     0.683233    Uiso  ? O
   Oz_1       1.0     0.611800     0.501967     0.016567    Uiso  ? O
   Oz_1       1.0     0.611800     0.501967     0.349900    Uiso  ? O
   Oz_1       1.0     0.611800     0.501967     0.683233    Uiso  ? O
   Oz_1       1.0     0.611800     0.835300     0.016567    Uiso  ? O
   Oz_1       1.0     0.611800     0.835300     0.349900    Uiso  ? O
   Oz_1       1.0     0.611800     0.835300     0.683233    Uiso  ? O
   Siz_2      1.0     0.375000     0.250000     0.166667    Uiso  ? Si
   Siz_2      1.0     0.375000     0.250000     0.500000    Uiso  ? Si
   Siz_2      1.0     0.375000     0.250000     0.833333    Uiso  ? Si
   Siz_2      1.0     0.375000     0.583333     0.166667    Uiso  ? Si
   Siz_2      1.0     0.375000     0.583333     0.500000    Uiso  ? Si
   Siz_2      1.0     0.375000     0.583333     0.833333    Uiso  ? Si
   Siz_2      1.0     0.375000     0.916667     0.166667    Uiso  ? Si
   Siz_2      1.0     0.375000     0.916667     0.500000    Uiso  ? Si
   Siz_2      1.0     0.375000     0.916667     0.833333    Uiso  ? Si
   Siz_2      1.0     0.875000     0.250000     0.166667    Uiso  ? Si
   Siz_2      1.0     0.875000     0.250000     0.500000    Uiso  ? Si
   Siz_2      1.0     0.875000     0.250000     0.833333    Uiso  ? Si
   Siz_2      1.0     0.875000     0.583333     0.166667    Uiso  ? Si
   Siz_2      1.0     0.875000     0.583333     0.500000    Uiso  ? Si
   Siz_2      1.0     0.875000     0.583333     0.833333    Uiso  ? Si
   Siz_2      1.0     0.875000     0.916667     0.166667    Uiso  ? Si
   Siz_2      1.0     0.875000     0.916667     0.500000    Uiso  ? Si
   Siz_2      1.0     0.875000     0.916667     0.833333    Uiso  ? Si
